   18

O    -0.336500E+00 -0.404900E+00  0.395780E+01
H     0.622200E+00 -0.413500E+00  0.373690E+01
H    -0.623300E+00  0.520300E+00  0.369240E+01
O    -0.176680E+01  0.208260E+01  0.332100E+01
H    -0.177940E+01  0.308800E+01  0.345900E+01
H    -0.261750E+01  0.177470E+01  0.291870E+01
O    -0.436830E+01  0.205320E+01  0.275970E+01
H    -0.447880E+01  0.298100E+01  0.243260E+01
H    -0.452590E+01  0.141060E+01  0.201960E+01
O    -0.163140E+01 -0.239630E+01  0.267580E+01
H    -0.256790E+01 -0.228100E+01  0.226330E+01
H    -0.126360E+01 -0.150430E+01  0.302390E+01
O    -0.422430E+01 -0.204050E+01  0.199920E+01
H    -0.473320E+01 -0.222510E+01  0.288090E+01
H    -0.441950E+01 -0.105090E+01  0.185480E+01
O    -0.516300E+01  0.267100E+00  0.990100E+00
H    -0.431710E+01  0.437900E+00  0.464500E+00
H    -0.576160E+01 -0.218300E+00  0.253400E+00



